<?xml version="1.0" encoding="UTF-8"?>

<!-- generated on Fri Jul  8 15:06:31 2016 by SUMO netconvert Version 0.26.0
<?xml version="1.0" encoding="UTF-8"?>

<configuration xmlns:xsi="http://www.w3.org/2001/XMLSchema-instance" xsi:noNamespaceSchemaLocation="http://sumo.dlr.de/xsd/netconvertConfiguration.xsd">

    <input>
        <type-files value="osm-urban-de.typ.xml"/>
        <osm-files value="WoolStripedV5.osm"/>
    </input>

    <output>
        <output-file value="wool.net.xml"/>
    </output>

    <projection>
        <proj.utm value="true"/>
    </projection>

    <tls_building>
        <tls.join value="true"/>
    </tls_building>

    <ramp_guessing>
        <ramps.guess value="true"/>
    </ramp_guessing>

    <edge_removal>
        <remove-edges.by-vclass value="hov,taxi,bus,delivery,truck,motorcycle,bicycle,pedestrian"/>
        <remove-edges.isolated value="true"/>
    </edge_removal>

    <processing>
        <geometry.remove value="true"/>
        <lefthand value="true"/>
    </processing>

    <report>
        <verbose value="true"/>
    </report>

</configuration>
-->

<net version="0.25" lefthand="true" xmlns:xsi="http://www.w3.org/2001/XMLSchema-instance" xsi:noNamespaceSchemaLocation="http://sumo.dlr.de/xsd/net_file.xsd">

    <location netOffset="-552473.19,-5611536.45" convBoundary="0.00,-0.00,5309.26,3790.38" origBoundary="-2.257447,50.653148,-2.182082,50.687051" projParameter="+proj=utm +zone=30 +ellps=WGS84 +datum=WGS84 +units=m +no_defs"/>

    <type id="highway.bridleway" priority="1" numLanes="1" speed="2.78" allow="pedestrian" oneway="1" width="2.00"/>
    <type id="highway.bus_guideway" priority="1" numLanes="1" speed="8.33" allow="bus" oneway="1"/>
    <type id="highway.cycleway" priority="1" numLanes="1" speed="5.56" allow="bicycle" oneway="0" width="1.00"/>
    <type id="highway.footway" priority="1" numLanes="1" speed="8.33" allow="pedestrian" oneway="1" width="2.00"/>
    <type id="highway.ford" priority="1" numLanes="1" speed="2.78" allow="army" oneway="0"/>
    <type id="highway.living_street" priority="3" numLanes="1" speed="2.78" disallow="tram rail_urban rail rail_electric ship" oneway="0"/>
    <type id="highway.motorway" priority="13" numLanes="2" speed="44.44" allow="private emergency authority army vip passenger hov taxi bus coach delivery truck trailer motorcycle evehicle custom1 custom2" oneway="1"/>
    <type id="highway.motorway_link" priority="12" numLanes="1" speed="22.22" allow="private emergency authority army vip passenger hov taxi bus coach delivery truck trailer motorcycle evehicle custom1 custom2" oneway="1"/>
    <type id="highway.path" priority="1" numLanes="1" speed="2.78" allow="bicycle pedestrian" oneway="1" width="2.00"/>
    <type id="highway.pedestrian" priority="1" numLanes="1" speed="8.33" allow="pedestrian" oneway="1" width="2.00"/>
    <type id="highway.primary" priority="9" numLanes="1" speed="27.78" disallow="tram rail_urban rail rail_electric ship" oneway="0"/>
    <type id="highway.primary_link" priority="8" numLanes="1" speed="22.22" disallow="tram rail_urban rail rail_electric ship" oneway="0"/>
    <type id="highway.raceway" priority="14" numLanes="2" speed="83.33" allow="vip" oneway="0"/>
    <type id="highway.residential" priority="4" numLanes="1" speed="13.89" disallow="tram rail_urban rail rail_electric ship" oneway="0"/>
    <type id="highway.secondary" priority="7" numLanes="1" speed="27.78" disallow="tram rail_urban rail rail_electric ship" oneway="0"/>
    <type id="highway.secondary_link" priority="6" numLanes="1" speed="22.22" disallow="tram rail_urban rail rail_electric ship" oneway="0"/>
    <type id="highway.service" priority="2" numLanes="1" speed="5.56" allow="delivery bicycle pedestrian" oneway="0"/>
    <type id="highway.services" priority="1" numLanes="1" speed="8.33" disallow="tram rail_urban rail rail_electric ship" oneway="0"/>
    <type id="highway.stairs" priority="1" numLanes="1" speed="1.39" allow="pedestrian" oneway="1" width="2.00"/>
    <type id="highway.step" priority="1" numLanes="1" speed="1.39" allow="pedestrian" oneway="1" width="2.00"/>
    <type id="highway.steps" priority="1" numLanes="1" speed="1.39" allow="pedestrian" oneway="1" width="2.00"/>
    <type id="highway.tertiary" priority="6" numLanes="1" speed="22.22" disallow="tram rail_urban rail rail_electric ship" oneway="0"/>
    <type id="highway.tertiary_link" priority="5" numLanes="1" speed="22.22" disallow="tram rail_urban rail rail_electric ship" oneway="0"/>
    <type id="highway.track" priority="1" numLanes="1" speed="5.56" disallow="tram rail_urban rail rail_electric ship" oneway="0"/>
    <type id="highway.trunk" priority="11" numLanes="2" speed="27.78" disallow="tram rail_urban rail rail_electric bicycle pedestrian ship" oneway="0"/>
    <type id="highway.trunk_link" priority="10" numLanes="1" speed="22.22" disallow="tram rail_urban rail rail_electric bicycle pedestrian ship" oneway="0"/>
    <type id="highway.unclassified" priority="5" numLanes="1" speed="13.89" disallow="tram rail_urban rail rail_electric ship" oneway="0"/>
    <type id="highway.unsurfaced" priority="1" numLanes="1" speed="8.33" disallow="tram rail_urban rail rail_electric ship" oneway="0"/>
    <type id="railway.light_rail" priority="15" numLanes="1" speed="27.78" allow="rail_urban" oneway="1"/>
    <type id="railway.preserved" priority="15" numLanes="1" speed="27.78" allow="rail" oneway="1"/>
    <type id="railway.rail" priority="15" numLanes="1" speed="83.33" allow="rail rail_electric" oneway="1"/>
    <type id="railway.subway" priority="15" numLanes="1" speed="27.78" allow="rail_urban" oneway="1"/>
    <type id="railway.tram" priority="15" numLanes="1" speed="13.89" allow="tram" oneway="1"/>

    <edge id=":-146_0" function="internal">
        <lane id=":-146_0_0" index="0" disallow="tram rail_urban rail rail_electric ship" speed="17.88" length="4.84" shape="2851.21,3619.50 2850.10,3618.80 2849.43,3617.91 2849.19,3616.82 2849.38,3615.53"/>
    </edge>
    <edge id=":-146_1" function="internal">
        <lane id=":-146_1_0" index="0" disallow="tram rail_urban rail rail_electric ship" speed="17.88" length="2.67" shape="2851.21,3619.50 2849.74,3619.74 2849.03,3620.33 2849.04,3620.58"/>
    </edge>
    <edge id=":-146_4" function="internal">
        <lane id=":-146_4_0" index="0" speed="17.88" length="2.15" shape="2849.04,3620.58 2849.07,3621.25 2849.86,3622.51"/>
    </edge>
    <edge id=":-146_2" function="internal">
        <lane id=":-146_2_0" index="0" disallow="tram rail_urban rail rail_electric ship" speed="17.88" length="4.97" shape="2845.43,3623.50 2846.33,3622.60 2847.36,3622.13 2848.54,3622.10 2849.86,3622.51"/>
    </edge>
    <edge id=":-146_3" function="internal">
        <lane id=":-146_3_0" index="0" disallow="tram rail_urban rail rail_electric ship" speed="17.88" length="8.90" shape="2845.43,3623.50 2849.38,3615.53"/>
    </edge>
    <edge id=":-174_0" function="internal">
        <lane id=":-174_0_0" index="0" disallow="tram rail_urban rail rail_electric ship" speed="17.88" length="4.82" shape="5310.03,3387.70 5310.74,3386.39 5310.72,3385.47 5309.97,3384.93 5308.49,3384.78"/>
    </edge>
    <edge id=":-274_0" function="internal">
        <lane id=":-274_0_0" index="0" disallow="tram rail_urban rail rail_electric ship" speed="13.41" length="0.10" shape="2455.55,3166.65 2455.53,3166.61"/>
    </edge>
    <edge id=":-274_1" function="internal">
        <lane id=":-274_1_0" index="0" disallow="tram rail_urban rail rail_electric ship" speed="13.41" length="2.41" shape="2455.55,3166.65 2454.40,3165.70 2453.50,3165.54"/>
    </edge>
    <edge id=":-274_4" function="internal">
        <lane id=":-274_4_0" index="0" speed="13.41" length="2.41" shape="2453.50,3165.54 2452.82,3166.17 2452.38,3167.59"/>
    </edge>
    <edge id=":-274_2" function="internal">
        <lane id=":-274_2_0" index="0" disallow="tram rail_urban rail rail_electric ship" speed="13.41" length="0.10" shape="2452.37,3167.56 2452.38,3167.59"/>
    </edge>
    <edge id=":-274_3" function="internal">
        <lane id=":-274_3_0" index="0" disallow="tram rail_urban rail rail_electric ship" speed="13.41" length="2.41" shape="2452.37,3167.56 2453.52,3168.51 2454.43,3168.66"/>
    </edge>
    <edge id=":-274_5" function="internal">
        <lane id=":-274_5_0" index="0" speed="13.41" length="2.41" shape="2454.43,3168.66 2455.10,3168.03 2455.53,3166.61"/>
    </edge>
    <edge id=":-276_0" function="internal">
        <lane id=":-276_0_0" index="0" disallow="tram rail_urban rail rail_electric ship" speed="13.41" length="0.10" shape="2453.51,3157.39 2453.52,3157.40"/>
    </edge>
    <edge id=":-276_1" function="internal">
        <lane id=":-276_1_0" index="0" disallow="tram rail_urban rail rail_electric ship" speed="13.41" length="2.70" shape="2453.51,3157.39 2451.90,3156.96 2450.90,3157.22"/>
    </edge>
    <edge id=":-276_4" function="internal">
        <lane id=":-276_4_0" index="0" speed="13.41" length="2.70" shape="2450.90,3157.22 2450.51,3158.17 2450.73,3159.83"/>
    </edge>
    <edge id=":-276_2" function="internal">
        <lane id=":-276_2_0" index="0" disallow="tram rail_urban rail rail_electric ship" speed="13.41" length="1.67" shape="2450.32,3158.21 2450.73,3159.83"/>
    </edge>
    <edge id=":-276_3" function="internal">
        <lane id=":-276_3_0" index="0" disallow="tram rail_urban rail rail_electric ship" speed="13.41" length="2.41" shape="2450.32,3158.21 2451.42,3159.20 2452.32,3159.40"/>
    </edge>
    <edge id=":-276_5" function="internal">
        <lane id=":-276_5_0" index="0" speed="13.41" length="2.41" shape="2452.32,3159.40 2453.02,3158.80 2453.52,3157.40"/>
    </edge>
    <edge id=":-56_0" function="internal">
        <lane id=":-56_0_0" index="0" disallow="tram rail_urban rail rail_electric ship" speed="13.41" length="6.75" shape="2454.82,3164.11 2453.54,3157.49"/>
    </edge>
    <edge id=":-56_1" function="internal">
        <lane id=":-56_1_0" index="0" disallow="tram rail_urban rail rail_electric ship" speed="13.41" length="6.62" shape="2454.82,3164.11 2454.90,3162.07 2454.32,3160.95 2453.07,3160.73 2451.15,3161.44"/>
    </edge>
    <edge id=":-56_2" function="internal">
        <lane id=":-56_2_0" index="0" allow="rail rail_electric" speed="83.33" length="11.38" shape="2446.98,3159.93 2450.08,3160.62 2452.53,3161.14 2454.99,3161.64 2458.12,3162.23"/>
    </edge>
    <edge id=":-56_3" function="internal">
        <lane id=":-56_3_0" index="0" disallow="tram rail_urban rail rail_electric ship" speed="13.41" length="1.47" shape="2450.78,3160.02 2451.15,3161.44"/>
    </edge>
    <edge id=":-56_4" function="internal">
        <lane id=":-56_4_0" index="0" disallow="tram rail_urban rail rail_electric ship" speed="13.41" length="5.47" shape="2450.78,3160.02 2452.42,3160.42 2453.43,3160.13 2453.80,3159.16 2453.54,3157.49"/>
    </edge>
    <edge id=":-8_0" function="internal">
        <lane id=":-8_0_0" index="0" allow="rail rail_electric" speed="83.33" length="9.89" shape="2457.40,3165.69 2447.80,3163.29"/>
    </edge>
    <edge id=":-8_1" function="internal">
        <lane id=":-8_1_0" index="0" disallow="tram rail_urban rail rail_electric ship" speed="13.41" length="1.26" shape="2455.21,3165.52 2454.84,3164.31"/>
    </edge>
    <edge id=":-8_2" function="internal">
        <lane id=":-8_2_0" index="0" disallow="tram rail_urban rail rail_electric ship" speed="13.41" length="4.82" shape="2455.21,3165.52 2454.08,3164.56 2453.17,3164.40 2452.49,3165.03 2452.05,3166.44"/>
    </edge>
    <edge id=":-8_3" function="internal">
        <lane id=":-8_3_0" index="0" disallow="tram rail_urban rail rail_electric ship" speed="13.41" length="4.89" shape="2451.18,3161.64 2452.05,3166.44"/>
    </edge>
    <edge id=":-8_4" function="internal">
        <lane id=":-8_4_0" index="0" disallow="tram rail_urban rail rail_electric ship" speed="13.41" length="6.62" shape="2451.18,3161.64 2451.09,3163.68 2451.67,3164.80 2452.92,3165.02 2454.84,3164.31"/>
    </edge>
    <edge id=":1152176940_0" function="internal">
        <lane id=":1152176940_0_0" index="0" disallow="tram rail_urban rail rail_electric ship" speed="13.89" length="4.82" shape="2676.44,2930.08 2675.26,2930.98 2674.89,2931.83 2675.36,2932.63 2676.64,2933.38"/>
    </edge>
    <edge id=":1152176941_0" function="internal">
        <lane id=":1152176941_0_0" index="0" disallow="tram rail_urban rail rail_electric ship" speed="13.41" length="8.88" shape="2725.40,2933.29 2724.30,2924.48"/>
    </edge>
    <edge id=":1152176941_1" function="internal">
        <lane id=":1152176941_1_0" index="0" disallow="tram rail_urban rail rail_electric ship" speed="13.65" length="5.22" shape="2725.40,2933.29 2724.69,2930.64 2723.24,2928.81 2723.12,2928.75"/>
    </edge>
    <edge id=":1152176941_2" function="internal">
        <lane id=":1152176941_2_0" index="0" disallow="tram rail_urban rail rail_electric ship" speed="13.41" length="2.41" shape="2725.40,2933.29 2724.44,2932.16 2723.58,2931.84"/>
    </edge>
    <edge id=":1152176941_9" function="internal">
        <lane id=":1152176941_9_0" index="0" speed="13.65" length="5.19" shape="2723.12,2928.75 2721.06,2927.78 2718.15,2927.58"/>
    </edge>
    <edge id=":1152176941_10" function="internal">
        <lane id=":1152176941_10_0" index="0" speed="13.41" length="2.41" shape="2723.58,2931.84 2722.80,2932.34 2722.12,2933.66"/>
    </edge>
    <edge id=":1152176941_3" function="internal">
        <lane id=":1152176941_3_0" index="0" disallow="tram rail_urban rail rail_electric ship" speed="13.65" length="5.29" shape="2718.35,2930.87 2719.87,2930.97 2721.01,2931.46 2721.76,2932.36 2722.12,2933.66"/>
    </edge>
    <edge id=":1152176941_4" function="internal">
        <lane id=":1152176941_4_0" index="0" disallow="tram rail_urban rail rail_electric ship" speed="13.65" length="10.13" shape="2718.35,2930.87 2721.26,2930.32 2723.22,2929.07 2724.24,2927.12 2724.30,2924.48"/>
    </edge>
    <edge id=":1152176941_5" function="internal">
        <lane id=":1152176941_5_0" index="0" disallow="tram rail_urban rail rail_electric ship" speed="13.89" length="4.82" shape="2718.35,2930.87 2719.53,2929.97 2719.89,2929.12 2719.43,2928.32 2718.15,2927.58"/>
    </edge>
    <edge id=":1152176941_6" function="internal">
        <lane id=":1152176941_6_0" index="0" disallow="tram rail_urban rail rail_electric ship" speed="13.65" length="4.94" shape="2720.96,2924.38 2720.94,2925.71 2720.46,2926.68 2719.53,2927.30 2718.15,2927.58"/>
    </edge>
    <edge id=":1152176941_7" function="internal">
        <lane id=":1152176941_7_0" index="0" disallow="tram rail_urban rail rail_electric ship" speed="13.41" length="9.35" shape="2720.96,2924.38 2722.12,2933.66"/>
    </edge>
    <edge id=":1152176941_8" function="internal">
        <lane id=":1152176941_8_0" index="0" disallow="tram rail_urban rail rail_electric ship" speed="13.41" length="2.77" shape="2720.96,2924.38 2721.76,2925.66 2722.58,2926.10 2722.87,2925.97"/>
    </edge>
    <edge id=":1152176941_11" function="internal">
        <lane id=":1152176941_11_0" index="0" speed="13.41" length="2.12" shape="2722.87,2925.97 2723.43,2925.71 2724.30,2924.48"/>
    </edge>
    <edge id=":1589981869_0" function="internal">
        <lane id=":1589981869_0_0" index="0" disallow="tram rail_urban rail rail_electric ship" speed="20.84" length="4.91" shape="1296.99,2496.74 1296.41,2497.96 1295.60,2498.77 1294.55,2499.20 1293.27,2499.22"/>
    </edge>
    <edge id=":1589981869_1" function="internal">
        <lane id=":1589981869_1_0" index="0" disallow="tram rail_urban rail rail_electric ship" speed="13.89" length="4.82" shape="1296.99,2496.74 1297.39,2498.18 1298.05,2498.82 1298.96,2498.69 1300.13,2497.77"/>
    </edge>
    <edge id=":1589981869_2" function="internal">
        <lane id=":1589981869_2_0" index="0" disallow="tram rail_urban rail rail_electric ship" speed="20.84" length="4.83" shape="1301.82,2501.79 1300.75,2501.06 1300.10,2500.14 1299.90,2499.05 1300.13,2497.77"/>
    </edge>
    <edge id=":1589981869_3" function="internal">
        <lane id=":1589981869_3_0" index="0" disallow="tram rail_urban rail rail_electric ship" speed="27.78" length="8.93" shape="1301.82,2501.79 1293.27,2499.22"/>
    </edge>
    <edge id=":2252820568_0" function="internal">
        <lane id=":2252820568_0_0" index="0" disallow="tram rail_urban rail rail_electric ship" speed="22.83" length="5.95" shape="2831.86,3597.00 2830.39,3596.78 2829.05,3596.25 2827.83,3595.44 2826.74,3594.32"/>
    </edge>
    <edge id=":2252820568_1" function="internal">
        <lane id=":2252820568_1_0" index="0" disallow="tram rail_urban rail rail_electric ship" speed="17.88" length="9.18" shape="2831.86,3597.00 2823.46,3600.72"/>
    </edge>
    <edge id=":2252820568_2" function="internal">
        <lane id=":2252820568_2_0" index="0" disallow="tram rail_urban rail rail_electric ship" speed="22.83" length="5.15" shape="2824.18,3596.40 2824.91,3597.63 2825.04,3598.76 2824.56,3599.79 2823.46,3600.72"/>
    </edge>
    <edge id=":2252820568_3" function="internal">
        <lane id=":2252820568_3_0" index="0" disallow="tram rail_urban rail rail_electric ship" speed="27.78" length="4.82" shape="2824.18,3596.40 2825.60,3596.84 2826.50,3596.64 2826.88,3595.80 2826.74,3594.32"/>
    </edge>
    <edge id=":268692567_0" function="internal">
        <lane id=":268692567_0_0" index="0" disallow="tram rail_urban rail rail_electric ship" speed="13.41" length="9.54" shape="2657.39,3105.71 2647.89,3106.62"/>
    </edge>
    <edge id=":268692567_1" function="internal">
        <lane id=":268692567_1_0" index="0" disallow="tram rail_urban rail rail_electric ship" speed="13.65" length="5.04" shape="2657.39,3105.71 2654.77,3106.36 2652.91,3107.77"/>
    </edge>
    <edge id=":268692567_2" function="internal">
        <lane id=":268692567_2_0" index="0" disallow="tram rail_urban rail rail_electric ship" speed="13.41" length="2.41" shape="2657.39,3105.71 2656.24,3106.65 2655.90,3107.51"/>
    </edge>
    <edge id=":268692567_9" function="internal">
        <lane id=":268692567_9_0" index="0" speed="13.65" length="5.33" shape="2652.91,3107.77 2651.81,3109.92 2651.49,3112.82"/>
    </edge>
    <edge id=":268692567_10" function="internal">
        <lane id=":268692567_10_0" index="0" speed="13.41" length="2.41" shape="2655.90,3107.51 2656.39,3108.29 2657.70,3109.00"/>
    </edge>
    <edge id=":268692567_3" function="internal">
        <lane id=":268692567_3_0" index="0" disallow="tram rail_urban rail rail_electric ship" speed="13.65" length="5.33" shape="2654.79,3112.76 2654.95,3111.22 2655.49,3110.08 2656.40,3109.34 2657.70,3109.00"/>
    </edge>
    <edge id=":268692567_4" function="internal">
        <lane id=":268692567_4_0" index="0" disallow="tram rail_urban rail rail_electric ship" speed="13.65" length="10.73" shape="2654.79,3112.76 2654.31,3109.83 2653.01,3107.82 2650.87,3106.75 2647.89,3106.62"/>
    </edge>
    <edge id=":268692567_5" function="internal">
        <lane id=":268692567_5_0" index="0" disallow="tram rail_urban rail rail_electric ship" speed="13.89" length="4.82" shape="2654.79,3112.76 2653.94,3111.54 2653.11,3111.14 2652.29,3111.57 2651.49,3112.82"/>
    </edge>
    <edge id=":268692567_6" function="internal">
        <lane id=":268692567_6_0" index="0" disallow="tram rail_urban rail rail_electric ship" speed="13.65" length="5.10" shape="2648.21,3109.90 2649.63,3109.96 2650.64,3110.47 2651.26,3111.42 2651.49,3112.82"/>
    </edge>
    <edge id=":268692567_7" function="internal">
        <lane id=":268692567_7_0" index="0" disallow="tram rail_urban rail rail_electric ship" speed="13.41" length="9.53" shape="2648.21,3109.90 2657.70,3109.00"/>
    </edge>
    <edge id=":268692567_8" function="internal">
        <lane id=":268692567_8_0" index="0" disallow="tram rail_urban rail rail_electric ship" speed="13.41" length="2.41" shape="2648.21,3109.90 2649.37,3108.96 2649.70,3108.10"/>
    </edge>
    <edge id=":268692567_11" function="internal">
        <lane id=":268692567_11_0" index="0" speed="13.41" length="2.41" shape="2649.70,3108.10 2649.21,3107.32 2647.89,3106.62"/>
    </edge>
    <edge id=":268692569_0" function="internal">
        <lane id=":268692569_0_0" index="0" disallow="tram rail_urban rail rail_electric ship" speed="13.89" length="4.82" shape="2619.35,3129.67 2618.16,3130.55 2617.78,3131.39 2618.23,3132.20 2619.51,3132.96"/>
    </edge>
    <edge id=":268692573_0" function="internal">
        <lane id=":268692573_0_0" index="0" disallow="tram rail_urban rail rail_electric ship" speed="13.89" length="5.07" shape="2767.16,2849.31 2766.07,2850.20 2764.98,2850.50 2763.88,2850.23 2762.77,2849.37"/>
    </edge>
    <edge id=":268692573_1" function="internal">
        <lane id=":268692573_1_0" index="0" disallow="tram rail_urban rail rail_electric ship" speed="13.89" length="9.13" shape="2767.16,2849.31 2765.49,2851.43 2764.43,2853.51 2763.98,2855.55 2764.13,2857.56"/>
    </edge>
    <edge id=":268692573_2" function="internal">
        <lane id=":268692573_2_0" index="0" disallow="tram rail_urban rail rail_electric ship" speed="13.89" length="4.82" shape="2767.16,2849.31 2766.93,2850.78 2767.25,2851.64 2768.14,2851.90 2769.59,2851.54"/>
    </edge>
    <edge id=":268692573_3" function="internal">
        <lane id=":268692573_3_0" index="0" disallow="tram rail_urban rail rail_electric ship" speed="13.89" length="5.94" shape="2767.35,2856.82 2767.29,2855.64 2767.65,2854.36 2768.41,2853.00 2769.59,2851.54"/>
    </edge>
    <edge id=":268692573_4" function="internal">
        <lane id=":268692573_4_0" index="0" disallow="tram rail_urban rail rail_electric ship" speed="13.89" length="8.75" shape="2767.35,2856.82 2762.77,2849.37"/>
    </edge>
    <edge id=":268692573_5" function="internal">
        <lane id=":268692573_5_0" index="0" disallow="tram rail_urban rail rail_electric ship" speed="13.89" length="2.92" shape="2767.35,2856.82 2766.27,2855.80 2765.37,2855.58 2764.98,2855.91"/>
    </edge>
    <edge id=":268692573_9" function="internal">
        <lane id=":268692573_9_0" index="0" speed="13.89" length="1.90" shape="2764.98,2855.91 2764.66,2856.17 2764.13,2857.56"/>
    </edge>
    <edge id=":268692573_6" function="internal">
        <lane id=":268692573_6_0" index="0" disallow="tram rail_urban rail rail_electric ship" speed="13.89" length="6.97" shape="2760.40,2851.67 2764.13,2857.56"/>
    </edge>
    <edge id=":268692573_7" function="internal">
        <lane id=":268692573_7_0" index="0" disallow="tram rail_urban rail rail_electric ship" speed="13.89" length="3.76" shape="2760.40,2851.67 2762.72,2853.46 2763.53,2853.66"/>
    </edge>
    <edge id=":268692573_8" function="internal">
        <lane id=":268692573_8_0" index="0" disallow="tram rail_urban rail rail_electric ship" speed="13.89" length="2.05" shape="2760.40,2851.67 2761.86,2851.98 2762.39,2851.81"/>
    </edge>
    <edge id=":268692573_10" function="internal">
        <lane id=":268692573_10_0" index="0" speed="13.89" length="6.85" shape="2763.53,2853.66 2765.03,2854.04 2767.31,2853.40 2769.59,2851.54"/>
    </edge>
    <edge id=":268692573_11" function="internal">
        <lane id=":268692573_11_0" index="0" speed="13.89" length="2.77" shape="2762.39,2851.81 2762.74,2851.70 2763.04,2850.83 2762.77,2849.37"/>
    </edge>
    <edge id=":268692579_0" function="internal">
        <lane id=":268692579_0_0" index="0" disallow="tram rail_urban rail rail_electric ship" speed="13.89" length="4.82" shape="2916.18,2675.61 2916.67,2674.21 2916.49,2673.30 2915.66,2672.90 2914.18,2672.99"/>
    </edge>
    <edge id=":268692600_0" function="internal">
        <lane id=":268692600_0_0" index="0" disallow="tram rail_urban rail rail_electric ship" speed="27.78" length="9.53" shape="2318.60,907.67 2312.64,900.24"/>
    </edge>
    <edge id=":268692600_1" function="internal">
        <lane id=":268692600_1_0" index="0" disallow="tram rail_urban rail rail_electric ship" speed="20.84" length="5.33" shape="2318.60,907.67 2316.45,905.65 2314.20,904.86"/>
    </edge>
    <edge id=":268692600_2" function="internal">
        <lane id=":268692600_2_0" index="0" disallow="tram rail_urban rail rail_electric ship" speed="27.78" length="2.41" shape="2318.60,907.67 2317.18,907.22 2316.28,907.41"/>
    </edge>
    <edge id=":268692600_9" function="internal">
        <lane id=":268692600_9_0" index="0" speed="20.84" length="5.33" shape="2314.20,904.86 2311.86,905.30 2309.42,906.96"/>
    </edge>
    <edge id=":268692600_10" function="internal">
        <lane id=":268692600_10_0" index="0" speed="27.78" length="2.41" shape="2316.28,907.41 2315.90,908.25 2316.02,909.73"/>
    </edge>
    <edge id=":268692600_3" function="internal">
        <lane id=":268692600_3_0" index="0" disallow="tram rail_urban rail rail_electric ship" speed="20.84" length="5.08" shape="2311.65,909.39 2312.81,908.60 2313.93,908.39 2315.00,908.77 2316.02,909.73"/>
    </edge>
    <edge id=":268692600_4" function="internal">
        <lane id=":268692600_4_0" index="0" disallow="tram rail_urban rail rail_electric ship" speed="20.84" length="10.36" shape="2311.65,909.39 2313.52,907.17 2314.30,904.90 2314.01,902.59 2312.64,900.24"/>
    </edge>
    <edge id=":268692600_5" function="internal">
        <lane id=":268692600_5_0" index="0" disallow="tram rail_urban rail rail_electric ship" speed="13.89" length="4.82" shape="2311.65,909.39 2312.01,907.95 2311.75,907.06 2310.89,906.73 2309.42,906.96"/>
    </edge>
    <edge id=":268692600_6" function="internal">
        <lane id=":268692600_6_0" index="0" disallow="tram rail_urban rail rail_electric ship" speed="20.84" length="5.28" shape="2310.07,902.31 2310.73,903.47 2310.85,904.64 2310.41,905.80 2309.42,906.96"/>
    </edge>
    <edge id=":268692600_7" function="internal">
        <lane id=":268692600_7_0" index="0" disallow="tram rail_urban rail rail_electric ship" speed="27.78" length="9.52" shape="2310.07,902.31 2316.02,909.73"/>
    </edge>
    <edge id=":268692600_8" function="internal">
        <lane id=":268692600_8_0" index="0" disallow="tram rail_urban rail rail_electric ship" speed="27.78" length="2.41" shape="2310.07,902.31 2311.49,902.75 2312.39,902.56"/>
    </edge>
    <edge id=":268692600_11" function="internal">
        <lane id=":268692600_11_0" index="0" speed="27.78" length="2.41" shape="2312.39,902.56 2312.77,901.72 2312.64,900.24"/>
    </edge>
    <edge id=":268692834_0" function="internal">
        <lane id=":268692834_0_0" index="0" disallow="tram rail_urban rail rail_electric ship" speed="20.84" length="12.20" shape="2674.63,2630.54 2674.25,2633.90 2673.29,2636.80 2671.76,2639.24 2669.66,2641.21"/>
    </edge>
    <edge id=":268692834_1" function="internal">
        <lane id=":268692834_1_0" index="0" disallow="tram rail_urban rail rail_electric ship" speed="27.78" length="15.54" shape="2674.63,2630.54 2674.62,2634.37 2674.78,2638.31 2675.13,2642.22 2675.67,2646.02"/>
    </edge>
    <edge id=":268692834_2" function="internal">
        <lane id=":268692834_2_0" index="0" disallow="tram rail_urban rail rail_electric ship" speed="20.84" length="7.97" shape="2674.63,2630.54 2675.03,2634.75 2676.47,2638.20"/>
    </edge>
    <edge id=":268692834_3" function="internal">
        <lane id=":268692834_3_0" index="0" disallow="tram rail_urban rail rail_electric ship" speed="20.84" length="6.87" shape="2674.63,2630.54 2675.07,2635.08 2676.41,2636.96"/>
    </edge>
    <edge id=":268692834_4" function="internal">
        <lane id=":268692834_4_0" index="0" disallow="tram rail_urban rail rail_electric ship" speed="27.78" length="2.41" shape="2674.63,2630.54 2675.42,2631.80 2676.23,2632.23"/>
    </edge>
    <edge id=":268692834_25" function="internal">
        <lane id=":268692834_25_0" index="0" speed="20.84" length="7.69" shape="2676.47,2638.20 2678.94,2640.91 2682.46,2642.86"/>
    </edge>
    <edge id=":268692834_26" function="internal">
        <lane id=":268692834_26_0" index="0" speed="20.84" length="7.91" shape="2676.41,2636.96 2676.71,2637.38 2679.54,2637.45 2683.55,2635.28"/>
    </edge>
    <edge id=":268692834_27" function="internal">
        <lane id=":268692834_27_0" index="0" speed="27.78" length="2.41" shape="2676.23,2632.23 2677.07,2631.84 2677.93,2630.62"/>
    </edge>
    <edge id=":268692834_5" function="internal">
        <lane id=":268692834_5_0" index="0" disallow="tram rail_urban rail rail_electric ship" speed="20.84" length="6.15" shape="2681.64,2632.59 2679.97,2633.50 2678.79,2633.47 2678.11,2632.51 2677.93,2630.62"/>
    </edge>
    <edge id=":268692834_6" function="internal">
        <lane id=":268692834_6_0" index="0" disallow="tram rail_urban rail rail_electric ship" speed="13.89" length="14.75" shape="2681.64,2632.59 2678.62,2634.75 2675.64,2636.89 2672.66,2639.03 2669.66,2641.21"/>
    </edge>
    <edge id=":268692834_7" function="internal">
        <lane id=":268692834_7_0" index="0" disallow="tram rail_urban rail rail_electric ship" speed="20.84" length="15.55" shape="2681.64,2632.59 2678.50,2635.41 2676.46,2638.58 2675.52,2642.12 2675.67,2646.02"/>
    </edge>
    <edge id=":268692834_8" function="internal">
        <lane id=":268692834_8_0" index="0" disallow="tram rail_urban rail rail_electric ship" speed="13.89" length="14.46" shape="2681.64,2632.59 2678.31,2635.65 2677.34,2638.37 2678.72,2640.78 2682.46,2642.86"/>
    </edge>
    <edge id=":268692834_9" function="internal">
        <lane id=":268692834_9_0" index="0" disallow="tram rail_urban rail rail_electric ship" speed="13.89" length="4.82" shape="2681.64,2632.59 2681.11,2633.99 2681.25,2634.90 2682.07,2635.33 2683.55,2635.28"/>
    </edge>
    <edge id=":268692834_10" function="internal">
        <lane id=":268692834_10_0" index="0" disallow="tram rail_urban rail rail_electric ship" speed="13.89" length="6.31" shape="2683.66,2639.79 2682.10,2638.90 2681.56,2637.85 2682.04,2636.64 2683.55,2635.28"/>
    </edge>
    <edge id=":268692834_11" function="internal">